test/data/opendss/loadparser_error.dss
Clear
New Circuit.3Bus_example
!  define a really stiff source
~ basekv=0.4   pu=1.0  MVAsc1=1e6  MVAsc3=1e6 basemva=1

!Define Linecodes


New linecode.556MCM nphases=3 basefreq=50  ! ohms per 5 mile
~ rmatrix = ( 0.1000 | 0.0400    0.1000 |  0.0400    0.0400    0.1000)
~ xmatrix = ( 0.0583 |  0.0233    0.0583 | 0.0233    0.0233    0.0583)
~ cmatrix = (0.0  | -0  0.0 | -0 -0 0.0  ) ! small capacitance

!Define lines

New Line.OHLine  bus1=sourcebus.1.2.3  loadbus.1.2.3  linecode = 556MCM   length=0.000000001  ! 5 mile line

!Loads - single phase

! Error should be thrown for two-phase loads
New Load.d1ph phases=2 loadbus kv=0.23 kW=400 kvar=300 model=1 conn=delta vminpu=0.7 vmaxpu=1.3
! Error should be thrown for nphases not in [1,3]
New Load.d1ph phases=4 loadbus kv=0.23 kW=400 kvar=300 model=1 conn=delta vminpu=0.7 vmaxpu=1.3
! Error when connections not permutations of 0:3 or 1:3
New Load.d1ph phases=3 loadbus.1.2 kv=0.23 kW=400 kvar=300 model=1 conn=delta vminpu=0.7 vmaxpu=1.3
! This specification will now lead to an error
New Load.y1ph123 phases=1 loadbus.0.1.2.3 kv=0.23 kW=400 kvar=300 model=1 conn=wye vminpu=0.7 vmaxpu=1.3
New Load.d1ph123 phases=1 loadbus.0.1.2.3 kv=0.23 kW=400 kvar=300 model=1 conn=delta vminpu=0.7 vmaxpu=1.3
New Load.y1ph phases=1 loadbus kv=0.23 kW=400 kvar=300 model=1 conn=wye vminpu=0.7 vmaxpu=1.3


Set voltagebases=[0.4]
Set tolerance=0.000001
set defaultbasefreq=50
Calcvoltagebases

Solve
